# File generated by Flopy version 3.9.5 on 02/19/2026 at 17:07:27.
BEGIN options
  BUDGET  FILEOUT  gwf_cat_ex_1d.cbb
  HEAD  FILEOUT  gwf_cat_ex_1d.hds
  HEAD  PRINT_FORMAT  COLUMNS  10  WIDTH  15  DIGITS  6  GENERAL
END options

BEGIN period  1
  SAVE  HEAD  ALL
  SAVE  BUDGET  ALL
  PRINT  HEAD  LAST
  PRINT  BUDGET  LAST
END period  1

