# File generated by Flopy version 3.9.5 on 01/10/2026 at 20:55:51.
BEGIN options
  auxiliary  concentration  rtmf6_sol_number
  SAVE_FLOWS
END options

BEGIN dimensions
  MAXBOUND  1
END dimensions

BEGIN period  1
  1 1 1 1 0 0
END period  1

