# File generated by Flopy version 3.9.5 on 01/10/2026 at 20:55:51.
BEGIN options
  BUDGET  FILEOUT  gwt_cat_ex_1d.cbb
  CONCENTRATION  FILEOUT  gwt_cat_ex_1d.ucn
  CONCENTRATION  PRINT_FORMAT  COLUMNS  10  WIDTH  15  DIGITS  10  GENERAL
END options

BEGIN period  1
  SAVE  CONCENTRATION  ALL
  SAVE  BUDGET  ALL
  PRINT  CONCENTRATION  ALL
  PRINT  BUDGET  ALL
END period  1

