# File generated by Flopy version 3.9.5 on 01/10/2026 at 20:55:51.
BEGIN options
  XT3D_OFF
END options

BEGIN griddata
  alh
    CONSTANT       0.00200000
  ath1
    CONSTANT  2.00000000E-04
  atv
    CONSTANT  2.00000000E-04
END griddata

