# File generated by Flopy version 3.9.5 on 02/19/2026 at 17:07:27.
BEGIN options
  PRINT_FLOWS
  SAVE_FLOWS
END options

BEGIN sources
  wel  aux  concentration
END sources

