# File generated by Flopy version 3.9.5 on 01/10/2026 at 20:55:51.
BEGIN options
END options

BEGIN continuous  FILEOUT  gwt_cat_ex_1d.obs.csv
  concentration  concentration  1 1 39
END continuous  FILEOUT  gwt_cat_ex_1d.obs.csv

