# File generated by Flopy version 3.9.5 on 02/19/2026 at 17:07:27.
BEGIN options
END options

BEGIN packages
  DIS6  gwt_cat_ex_1d.dis  dis
  IC6  gwt_cat_ex_1d.ic  ic
  SSM6  gwt_cat_ex_1d.ssm  ssm
  ADV6  gwt_cat_ex_1d.adv  adv
  DSP6  gwt_cat_ex_1d.dsp  dsp
  MST6  gwt_cat_ex_1d.mst  mst
  OBS6  gwt_cat_ex_1d.obs  obs_0
  OC6  gwt_cat_ex_1d.oc  oc
END packages

