# File generated by Flopy version 3.9.5 on 01/04/2026 at 10:27:03.
BEGIN options
  SAVE_FLOWS
  SAVE_SPECIFIC_DISCHARGE
END options

BEGIN griddata
  icelltype
    CONSTANT  0
  k
    CONSTANT       0.010000000
  k33
    CONSTANT       0.010000000
END griddata
