# File generated by Flopy version 3.9.5 on 01/04/2026 at 10:27:03.
BEGIN options
  auxiliary  CONCENTRATION  rtmf6_sol_number
END options

BEGIN dimensions
  MAXBOUND  2
END dimensions

BEGIN period  1
  1 1 1 14 0.00000000E+00 1
  1 1 10 12 0.00000000E+00 1
END period  1

BEGIN period  2
  1 1 1 14 0.00000000E+00 0
  1 1 10 12 0.00000000E+00 -1
END period  2

