# File generated by Flopy version 3.9.5 on 01/04/2026 at 10:27:03.
BEGIN options
  TIME_UNITS  days
END options

BEGIN dimensions
  NPER  2
END dimensions

BEGIN perioddata
       1.00000000  1       1.00000000
    2000.00000000  2000       1.00000000
END perioddata

