# File generated by Flopy version 3.9.5 on 01/04/2026 at 10:27:03.
BEGIN options
  SAVE_FLOWS
END options

BEGIN packages
  DIS6  gwf_advect10.dis  dis
  IC6  gwf_advect10.ic  ic
  NPF6  gwf_advect10.npf  npf
  STO6  gwf_advect10.sto  sto
  CHD6  gwf_advect10.chd  chd-1
  OC6  gwf_advect10.oc  oc
END packages

