# File generated by Flopy version 3.9.5 on 01/04/2026 at 10:27:03.
BEGIN options
END options

BEGIN griddata
  strt
    CONSTANT      14.00000000
END griddata

