# File generated by Flopy version 3.9.5 on 01/04/2026 at 10:27:03.
BEGIN options
  BUDGET  FILEOUT  gwf_advect10.bud
  HEAD  FILEOUT  gwf_advect10.hds
END options

BEGIN period  1
  SAVE  BUDGET  LAST
  SAVE  HEAD  LAST
END period  1

