# File generated by Flopy version 3.9.5 on 01/04/2026 at 10:27:03.
BEGIN options
END options

BEGIN continuous  FILEOUT  gwt_advect10.obs.csv
  center_layer_0  concentration  1 1 9
END continuous  FILEOUT  gwt_advect10.obs.csv

