# File generated by Flopy version 3.9.5 on 01/04/2026 at 10:27:03.
BEGIN options
  PRINT_OPTION  summary
END options

BEGIN nonlinear
  OUTER_DVCLOSE       0.10000000
  OUTER_MAXIMUM  500
  UNDER_RELAXATION  dbd
END nonlinear

BEGIN linear
  INNER_MAXIMUM  1000
  INNER_DVCLOSE       0.10000000
  LINEAR_ACCELERATION  bicgstab
  SCALING_METHOD  none
  REORDERING_METHOD  none
END linear

