# File generated by Flopy version 3.9.5 on 01/04/2026 at 10:27:03.
BEGIN options
  SAVE_FLOWS
END options

BEGIN packages
  DIS6  gwt_advect10.dis  dis
  IC6  gwt_advect10.ic  ic
  ADV6  gwt_advect10.adv  adv
  DSP6  gwt_advect10.dsp  dsp
  MST6  gwt_advect10.mst  mst
  SSM6  gwt_advect10.ssm  ssm
  OC6  gwt_advect10.oc  oc
  OBS6  gwt_advect10.obs  obs_0
END packages

