# File generated by Flopy version 3.9.5 on 01/04/2026 at 10:27:03.
BEGIN options
  XT3D_OFF
END options

BEGIN griddata
  alh
    CONSTANT  1.00000000E-04
  ath1
    CONSTANT  1.00000000E-06
END griddata

