# File generated by Flopy version 3.9.5 on 01/04/2026 at 10:27:03.
BEGIN options
  LENGTH_UNITS  meters
END options

BEGIN dimensions
  NLAY  1
  NROW  1
  NCOL  10
END dimensions

BEGIN griddata
  delr
    CONSTANT       1.00000000
  delc
    CONSTANT       1.00000000
  top
    CONSTANT      15.00000000
  botm
    CONSTANT      -5.00000000
END griddata

