# File generated by Flopy version 3.9.5 on 01/04/2026 at 10:27:03.
BEGIN options
END options

BEGIN timing
  TDIS6  gwf_advect10.tdis
END timing

BEGIN models
  gwf6  gwf_advect10.nam  gwf_advect10
  gwt6  gwt_advect10.nam  gwt_advect10
END models

BEGIN exchanges
  GWF6-GWT6  advect10.gwfgwt  gwf_advect10  gwt_advect10
END exchanges

BEGIN solutiongroup  1
  ims6  gwf_advect10.ims  gwf_advect10
  ims6  gwt_advect10.ims  gwt_advect10
END solutiongroup  1

