# File generated by Flopy version 3.10.0 on 03/17/2026 at 15:46:21.
BEGIN options
  TIME_UNITS  days
END options

BEGIN dimensions
  NPER  1
END dimensions

BEGIN perioddata
    7300.00000000  730       1.00000000
END perioddata

