# File generated by Flopy version 3.3.3 on 03/09/2026 at 16:44:32.
BEGIN options
  TIME_UNITS  days
END options

BEGIN dimensions
  NPER  1
END dimensions

BEGIN perioddata
    7300.00000000  100       1.00000000
END perioddata

