# File generated by Flopy version 3.3.3 on 03/09/2026 at 16:44:32.
BEGIN options
  BUDGET  FILEOUT  gwf_appelo_uran.cbb
  HEAD  FILEOUT  gwf_appelo_uran.hds
  HEAD  PRINT_FORMAT  COLUMNS  10  WIDTH  15  DIGITS  6  GENERAL
END options

BEGIN period  1
  SAVE  HEAD  ALL
  SAVE  BUDGET  ALL
  PRINT  HEAD  LAST
  PRINT  BUDGET  LAST
END period  1

