# File generated by Flopy version 3.3.3 on 03/09/2026 at 16:44:32.
BEGIN options
  auxiliary  concentration  rtmf6_sol_number
  SAVE_FLOWS
END options

BEGIN dimensions
  MAXBOUND  2
END dimensions

BEGIN period  1
  1 1 1       1.50000000       0.00000000       1.00000000
  1 40 1       1.50000000       0.00000000       3.00000000
END period  1

