# File generated by Flopy version 3.3.3 on 03/09/2026 at 16:44:32.
BEGIN options
  SAVE_FLOWS
END options

BEGIN packages
  DIS6  gwf_appelo_uran.dis  dis
  NPF6  gwf_appelo_uran.npf  npf
  IC6  gwf_appelo_uran.ic  ic
  WEL6  gwf_appelo_uran.wel  wel
  CHD6  gwf_appelo_uran.chd  chd
  OC6  gwf_appelo_uran.oc  oc
END packages

