# File generated by Flopy version 3.10.0 on 03/17/2026 at 15:46:21.
BEGIN options
  auxiliary  concentration  rtmf6_sol_number
  SAVE_FLOWS
END options

BEGIN dimensions
  MAXBOUND  2
END dimensions

BEGIN period  1
  1 1 1 1.50000000E+00 0 1
  1 40 1 1.50000000E+00 0 3
END period  1

