# File generated by Flopy version 3.3.3 on 03/09/2026 at 16:44:32.
BEGIN options
  auxiliary  concentration  rtmf6_sol_number
END options

BEGIN dimensions
  MAXBOUND  1
END dimensions

BEGIN period  1
  1 20 100      10.00000000       0.00000000       0.00000000
END period  1

