# File generated by Flopy version 3.10.0 on 03/17/2026 at 15:46:21.
BEGIN options
  auxiliary  concentration  rtmf6_sol_number
END options

BEGIN dimensions
  MAXBOUND  1
END dimensions

BEGIN period  1
  1 20 100 10 0 0
END period  1

