# File generated by Flopy version 3.3.3 on 03/09/2026 at 16:44:32.
BEGIN options
  SAVE_FLOWS
  SAVE_SPECIFIC_DISCHARGE
  SAVE_SATURATION
END options

BEGIN griddata
  icelltype
    CONSTANT  0
  k
    CONSTANT     100.00000000
  k33
    CONSTANT     100.00000000
END griddata

