# File generated by Flopy version 3.10.0 on 03/17/2026 at 15:46:21.
BEGIN options
  SAVE_FLOWS
END options

BEGIN packages
  DIS6  gwf_appelo_uran.dis  dis
  NPF6  gwf_appelo_uran.npf  npf
  IC6  gwf_appelo_uran.ic  ic
  WEL6  gwf_appelo_uran.wel  wel
  CHD6  gwf_appelo_uran.chd  chd
  OC6  gwf_appelo_uran.oc  oc
END packages

