# File generated by Flopy version 3.3.3 on 03/09/2026 at 16:44:32.
BEGIN options
  LENGTH_UNITS  meters
  NOGRB
END options

BEGIN dimensions
  NLAY  1
  NROW  40
  NCOL  100
END dimensions

BEGIN griddata
  delr
    CONSTANT      20.00000000
  delc
    CONSTANT       1.25000000
  top
    CONSTANT       1.00000000
  botm
    CONSTANT       0.00000000
END griddata

