# File generated by Flopy version 3.3.3 on 03/09/2026 at 16:44:32.
BEGIN options
  PRINT_OPTION  summary
END options

BEGIN nonlinear
  OUTER_DVCLOSE  1.00000000E-06
  OUTER_MAXIMUM  300
  UNDER_RELAXATION  none
END nonlinear

BEGIN linear
  INNER_MAXIMUM  600
  INNER_DVCLOSE  1.00000000E-06
  inner_rclose  1.00000000E-06
  LINEAR_ACCELERATION  bicgstab
  RELAXATION_FACTOR       1.00000000
  SCALING_METHOD  none
  REORDERING_METHOD  none
END linear

