# File generated by Flopy version 3.10.0 on 03/17/2026 at 15:46:21.
BEGIN options
END options

BEGIN griddata
  porosity
    CONSTANT       0.20000000
END griddata

