# File generated by Flopy version 3.10.0 on 03/17/2026 at 15:46:21.
BEGIN options
  XT3D_OFF
END options

BEGIN griddata
  alh
    CONSTANT      10.00000000
  ath1
    CONSTANT       0.10000000
  atv
    CONSTANT       0.10000000
END griddata

