# File generated by Flopy version 3.10.0 on 03/17/2026 at 15:46:21.
BEGIN options
END options

BEGIN packages
  DIS6  gwt_appelo_uran.dis  dis
  IC6  gwt_appelo_uran.ic  ic
  SSM6  gwt_appelo_uran.ssm  ssm
  ADV6  gwt_appelo_uran.adv  adv
  DSP6  gwt_appelo_uran.dsp  dsp
  MST6  gwt_appelo_uran.mst  mst
  OC6  gwt_appelo_uran.oc  oc
END packages

