# File generated by Flopy version 3.3.3 on 03/09/2026 at 16:44:32.
BEGIN options
END options

BEGIN griddata
  porosity
    CONSTANT       0.20000000
END griddata

