# File generated by Flopy version 3.3.3 on 03/09/2026 at 16:44:32.
BEGIN options
END options

BEGIN timing
  TDIS6  appelo_uran.tdis
END timing

BEGIN models
  gwf6  gwf_appelo_uran.nam  gwf_appelo_uran
  gwt6  gwt_appelo_uran.nam  gwt_appelo_uran
END models

BEGIN exchanges
  GWF6-GWT6  appelo_uran.gwfgwt  gwf_appelo_uran  gwt_appelo_uran
END exchanges

BEGIN solutiongroup  1
  ims6  gwf_appelo_uran.ims  gwf_appelo_uran
  ims6  gwt_appelo_uran.ims  gwt_appelo_uran
END solutiongroup  1

