# File generated by Flopy version 3.9.5 on 12/31/2025 at 01:15:04.
BEGIN options
END options

BEGIN griddata
  strt
    # rtmf6_exchange_number
    CONSTANT       1
END griddata
