# File generated by Flopy version 3.3.3 on 03/05/2026 at 11:23:59.
BEGIN griddata
  strt
    CONSTANT       0
END griddata
