# File generated by Flopy version 3.9.5 on 02/19/2026 at 17:07:27.
BEGIN options
  TIME_UNITS  days
END options

BEGIN dimensions
  NPER  1
END dimensions

BEGIN perioddata
       0.24000000  240       1.00000000
END perioddata

