# File generated by Flopy version 3.9.5 on 02/19/2026 at 17:07:27.
BEGIN options
END options

BEGIN SOURCES
END SOURCES
