# File generated by Flopy version 3.9.5 on 02/19/2026 at 17:07:27.
BEGIN options
  auxiliary  rtmf6_sol_number
END options

BEGIN dimensions
  MAXBOUND  3
END dimensions

BEGIN period  1
  1 1 1 0 0
  1 1 25 0 0
END period  1


BEGIN period  3
  1 1 1 0 0
  1 1 10 0 0
END period  3
