# File generated by Flopy version 3.9.5 on 02/19/2026 at 17:07:27.
BEGIN options
END options

BEGIN dimensions
  MAXBOUND  3
END dimensions

BEGIN period  1
  1 1 40 1
END period  1

BEGIN period  2
  1 1 40 1
END period  2

BEGIN period  3
  1 1 40 1
END period  3
