# File generated by Flopy version 3.10.0 on 03/16/2026 at 14:55:54.
BEGIN options
  TIME_UNITS  days
END options

BEGIN dimensions
  NPER  1
END dimensions

BEGIN perioddata
     500.00000000  100       1.00000000
END perioddata

