# File generated by Flopy version 3.9.5 on 03/05/2026 at 16:37:26.
BEGIN options
  TIME_UNITS  days
END options

BEGIN dimensions
  NPER  1
END dimensions

BEGIN perioddata
     500.00000000  50       1.00000000
END perioddata

