# File generated by Flopy version 3.9.5 on 03/05/2026 at 16:37:26.
BEGIN options
  auxiliary  concentration  rtmf6_sol_number
END options

BEGIN dimensions
  MAXBOUND  160
END dimensions

BEGIN period  1
  1 1 1 5 0.00000000E+00 0.00000000E+00
  2 1 1 5 0.00000000E+00 0.00000000E+00
  1 1 80 3 0.00000000E+00 0.00000000E+00
  2 1 80 3 0.00000000E+00 0.00000000E+00
  1 2 1 5 0.00000000E+00 0.00000000E+00
  2 2 1 5 0.00000000E+00 0.00000000E+00
  1 2 80 3 0.00000000E+00 0.00000000E+00
  2 2 80 3 0.00000000E+00 0.00000000E+00
  1 3 1 5 0.00000000E+00 0.00000000E+00
  2 3 1 5 0.00000000E+00 0.00000000E+00
  1 3 80 3 0.00000000E+00 0.00000000E+00
  2 3 80 3 0.00000000E+00 0.00000000E+00
  1 4 1 5 0.00000000E+00 0.00000000E+00
  2 4 1 5 0.00000000E+00 0.00000000E+00
  1 4 80 3 0.00000000E+00 0.00000000E+00
  2 4 80 3 0.00000000E+00 0.00000000E+00
  1 5 1 5 0.00000000E+00 0.00000000E+00
  2 5 1 5 0.00000000E+00 0.00000000E+00
  1 5 80 3 0.00000000E+00 0.00000000E+00
  2 5 80 3 0.00000000E+00 0.00000000E+00
  1 6 1 5 0.00000000E+00 0.00000000E+00
  2 6 1 5 0.00000000E+00 0.00000000E+00
  1 6 80 3 0.00000000E+00 0.00000000E+00
  2 6 80 3 0.00000000E+00 0.00000000E+00
  1 7 1 5 0.00000000E+00 0.00000000E+00
  2 7 1 5 0.00000000E+00 0.00000000E+00
  1 7 80 3 0.00000000E+00 0.00000000E+00
  2 7 80 3 0.00000000E+00 0.00000000E+00
  1 8 1 5 0.00000000E+00 0.00000000E+00
  2 8 1 5 0.00000000E+00 0.00000000E+00
  1 8 80 3 0.00000000E+00 0.00000000E+00
  2 8 80 3 0.00000000E+00 0.00000000E+00
  1 9 1 5 0.00000000E+00 0.00000000E+00
  2 9 1 5 0.00000000E+00 0.00000000E+00
  1 9 80 3 0.00000000E+00 0.00000000E+00
  2 9 80 3 0.00000000E+00 0.00000000E+00
  1 10 1 5 0.00000000E+00 0.00000000E+00
  2 10 1 5 0.00000000E+00 0.00000000E+00
  1 10 80 3 0.00000000E+00 0.00000000E+00
  2 10 80 3 0.00000000E+00 0.00000000E+00
  1 11 1 5 0.00000000E+00 0.00000000E+00
  2 11 1 5 0.00000000E+00 0.00000000E+00
  1 11 80 3 0.00000000E+00 0.00000000E+00
  2 11 80 3 0.00000000E+00 0.00000000E+00
  1 12 1 5 0.00000000E+00 0.00000000E+00
  2 12 1 5 0.00000000E+00 0.00000000E+00
  1 12 80 3 0.00000000E+00 0.00000000E+00
  2 12 80 3 0.00000000E+00 0.00000000E+00
  1 13 1 5 0.00000000E+00 0.00000000E+00
  2 13 1 5 0.00000000E+00 0.00000000E+00
  1 13 80 3 0.00000000E+00 0.00000000E+00
  2 13 80 3 0.00000000E+00 0.00000000E+00
  1 14 1 5 1.00000000E+00 1.00000000E+00
  2 14 1 5 1.00000000E+00 1.00000000E+00
  1 14 80 3 1.00000000E+00 1.00000000E+00
  2 14 80 3 1.00000000E+00 1.00000000E+00
  1 15 1 5 1.00000000E+00 1.00000000E+00
  2 15 1 5 1.00000000E+00 1.00000000E+00
  1 15 80 3 1.00000000E+00 1.00000000E+00
  2 15 80 3 1.00000000E+00 1.00000000E+00
  1 16 1 5 1.00000000E+00 1.00000000E+00
  2 16 1 5 1.00000000E+00 1.00000000E+00
  1 16 80 3 1.00000000E+00 1.00000000E+00
  2 16 80 3 1.00000000E+00 1.00000000E+00
  1 17 1 5 1.00000000E+00 1.00000000E+00
  2 17 1 5 1.00000000E+00 1.00000000E+00
  1 17 80 3 1.00000000E+00 1.00000000E+00
  2 17 80 3 1.00000000E+00 1.00000000E+00
  1 18 1 5 1.00000000E+00 1.00000000E+00
  2 18 1 5 1.00000000E+00 1.00000000E+00
  1 18 80 3 1.00000000E+00 1.00000000E+00
  2 18 80 3 1.00000000E+00 1.00000000E+00
  1 19 1 5 1.00000000E+00 1.00000000E+00
  2 19 1 5 1.00000000E+00 1.00000000E+00
  1 19 80 3 1.00000000E+00 1.00000000E+00
  2 19 80 3 1.00000000E+00 1.00000000E+00
  1 20 1 5 1.00000000E+00 1.00000000E+00
  2 20 1 5 1.00000000E+00 1.00000000E+00
  1 20 80 3 1.00000000E+00 1.00000000E+00
  2 20 80 3 1.00000000E+00 1.00000000E+00
  1 21 1 5 1.00000000E+00 1.00000000E+00
  2 21 1 5 1.00000000E+00 1.00000000E+00
  1 21 80 3 1.00000000E+00 1.00000000E+00
  2 21 80 3 1.00000000E+00 1.00000000E+00
  1 22 1 5 1.00000000E+00 1.00000000E+00
  2 22 1 5 1.00000000E+00 1.00000000E+00
  1 22 80 3 1.00000000E+00 1.00000000E+00
  2 22 80 3 1.00000000E+00 1.00000000E+00
  1 23 1 5 1.00000000E+00 1.00000000E+00
  2 23 1 5 1.00000000E+00 1.00000000E+00
  1 23 80 3 1.00000000E+00 1.00000000E+00
  2 23 80 3 1.00000000E+00 1.00000000E+00
  1 24 1 5 1.00000000E+00 1.00000000E+00
  2 24 1 5 1.00000000E+00 1.00000000E+00
  1 24 80 3 1.00000000E+00 1.00000000E+00
  2 24 80 3 1.00000000E+00 1.00000000E+00
  1 25 1 5 1.00000000E+00 1.00000000E+00
  2 25 1 5 1.00000000E+00 1.00000000E+00
  1 25 80 3 1.00000000E+00 1.00000000E+00
  2 25 80 3 1.00000000E+00 1.00000000E+00
  1 26 1 5 0.00000000E+00 0.00000000E+00
  2 26 1 5 0.00000000E+00 0.00000000E+00
  1 26 80 3 0.00000000E+00 0.00000000E+00
  2 26 80 3 0.00000000E+00 0.00000000E+00
  1 27 1 5 0.00000000E+00 0.00000000E+00
  2 27 1 5 0.00000000E+00 0.00000000E+00
  1 27 80 3 0.00000000E+00 0.00000000E+00
  2 27 80 3 0.00000000E+00 0.00000000E+00
  1 28 1 5 0.00000000E+00 0.00000000E+00
  2 28 1 5 0.00000000E+00 0.00000000E+00
  1 28 80 3 0.00000000E+00 0.00000000E+00
  2 28 80 3 0.00000000E+00 0.00000000E+00
  1 29 1 5 0.00000000E+00 0.00000000E+00
  2 29 1 5 0.00000000E+00 0.00000000E+00
  1 29 80 3 0.00000000E+00 0.00000000E+00
  2 29 80 3 0.00000000E+00 0.00000000E+00
  1 30 1 5 0.00000000E+00 0.00000000E+00
  2 30 1 5 0.00000000E+00 0.00000000E+00
  1 30 80 3 0.00000000E+00 0.00000000E+00
  2 30 80 3 0.00000000E+00 0.00000000E+00
  1 31 1 5 0.00000000E+00 0.00000000E+00
  2 31 1 5 0.00000000E+00 0.00000000E+00
  1 31 80 3 0.00000000E+00 0.00000000E+00
  2 31 80 3 0.00000000E+00 0.00000000E+00
  1 32 1 5 0.00000000E+00 0.00000000E+00
  2 32 1 5 0.00000000E+00 0.00000000E+00
  1 32 80 3 0.00000000E+00 0.00000000E+00
  2 32 80 3 0.00000000E+00 0.00000000E+00
  1 33 1 5 0.00000000E+00 0.00000000E+00
  2 33 1 5 0.00000000E+00 0.00000000E+00
  1 33 80 3 0.00000000E+00 0.00000000E+00
  2 33 80 3 0.00000000E+00 0.00000000E+00
  1 34 1 5 0.00000000E+00 0.00000000E+00
  2 34 1 5 0.00000000E+00 0.00000000E+00
  1 34 80 3 0.00000000E+00 0.00000000E+00
  2 34 80 3 0.00000000E+00 0.00000000E+00
  1 35 1 5 0.00000000E+00 0.00000000E+00
  2 35 1 5 0.00000000E+00 0.00000000E+00
  1 35 80 3 0.00000000E+00 0.00000000E+00
  2 35 80 3 0.00000000E+00 0.00000000E+00
  1 36 1 5 0.00000000E+00 0.00000000E+00
  2 36 1 5 0.00000000E+00 0.00000000E+00
  1 36 80 3 0.00000000E+00 0.00000000E+00
  2 36 80 3 0.00000000E+00 0.00000000E+00
  1 37 1 5 0.00000000E+00 0.00000000E+00
  2 37 1 5 0.00000000E+00 0.00000000E+00
  1 37 80 3 0.00000000E+00 0.00000000E+00
  2 37 80 3 0.00000000E+00 0.00000000E+00
  1 38 1 5 0.00000000E+00 0.00000000E+00
  2 38 1 5 0.00000000E+00 0.00000000E+00
  1 38 80 3 0.00000000E+00 0.00000000E+00
  2 38 80 3 0.00000000E+00 0.00000000E+00
  1 39 1 5 0.00000000E+00 0.00000000E+00
  2 39 1 5 0.00000000E+00 0.00000000E+00
  1 39 80 3 0.00000000E+00 0.00000000E+00
  2 39 80 3 0.00000000E+00 0.00000000E+00
  1 40 1 5 0.00000000E+00 0.00000000E+00
  2 40 1 5 0.00000000E+00 0.00000000E+00
  1 40 80 3 0.00000000E+00 0.00000000E+00
  2 40 80 3 0.00000000E+00 0.00000000E+00
END period  1

