# File generated by Flopy version 3.9.5 on 03/05/2026 at 16:37:26.
BEGIN options
  LENGTH_UNITS  meters
  NOGRB
END options

BEGIN dimensions
  NLAY  2
  NROW  40
  NCOL  80
END dimensions

BEGIN griddata
  delr
    CONSTANT       2.50000000
  delc
    CONSTANT       1.25000000
  top
    CONSTANT      10.00000000
  botm  LAYERED
    CONSTANT       5.00000000
    CONSTANT       0.00000000
END griddata

