# File generated by Flopy version 3.9.5 on 03/05/2026 at 16:37:26.
BEGIN options
  SAVE_FLOWS
END options

BEGIN packages
  DIS6  gwf_ex10_simple.dis  dis
  NPF6  gwf_ex10_simple.npf  npf
  IC6  gwf_ex10_simple.ic  ic
  CHD6  gwf_ex10_simple.chd  chd
  OC6  gwf_ex10_simple.oc  oc
END packages

