# File generated by Flopy version 3.10.0 on 03/16/2026 at 14:55:54.
BEGIN options
  SAVE_FLOWS
  SAVE_SPECIFIC_DISCHARGE
  SAVE_SATURATION
END options

BEGIN griddata
  icelltype
    CONSTANT  0
  k
    CONSTANT      10.00000000
  k33
    CONSTANT      10.00000000
END griddata

