# File generated by Flopy version 3.10.0 on 03/16/2026 at 14:55:54.
BEGIN options
  SAVE_FLOWS
END options

BEGIN packages
  DIS6  gwf_ex10_simple.dis  dis
  NPF6  gwf_ex10_simple.npf  npf
  IC6  gwf_ex10_simple.ic  ic
  CHD6  gwf_ex10_simple.chd  chd
  OC6  gwf_ex10_simple.oc  oc
END packages

