# File generated by Flopy version 3.9.5 on 03/05/2026 at 16:37:26.
BEGIN options
END options

BEGIN griddata
  strt
    CONSTANT       1.00000000
END griddata

