# File generated by Flopy version 3.9.5 on 03/05/2026 at 16:37:26.
BEGIN options
  BUDGET  FILEOUT  gwf_ex10_simple.cbb
  HEAD  FILEOUT  gwf_ex10_simple.hds
  HEAD  PRINT_FORMAT  COLUMNS  10  WIDTH  15  DIGITS  6  GENERAL
END options

BEGIN period  1
  SAVE  HEAD  ALL
  SAVE  BUDGET  ALL
  PRINT  HEAD  LAST
  PRINT  BUDGET  LAST
END period  1

