# File generated by Flopy version 3.10.0 on 03/16/2026 at 14:55:54.
BEGIN options
END options

BEGIN griddata
  strt
    CONSTANT       1.00000000
END griddata

