# File generated by Flopy version 3.9.5 on 03/05/2026 at 16:37:26.
BEGIN options
  SAVE_FLOWS
  SAVE_SPECIFIC_DISCHARGE
  SAVE_SATURATION
END options

BEGIN griddata
  icelltype
    CONSTANT  0
  k
    CONSTANT      10.00000000
  k33
    CONSTANT      10.00000000
END griddata

