# File generated by Flopy version 3.10.0 on 03/16/2026 at 14:55:54.
BEGIN options
  BUDGET  FILEOUT  gwt_ex10_simple.cbb
  CONCENTRATION  FILEOUT  gwt_ex10_simple.ucn
  CONCENTRATION  PRINT_FORMAT  COLUMNS  10  WIDTH  15  DIGITS  10  GENERAL
END options

BEGIN period  1
  SAVE  CONCENTRATION  ALL
  SAVE  BUDGET  ALL
  PRINT  CONCENTRATION  ALL
  PRINT  BUDGET  ALL
END period  1

