# File generated by Flopy version 3.10.0 on 03/16/2026 at 14:55:54.
BEGIN options
END options

BEGIN packages
  DIS6  gwt_ex10_simple.dis  dis
  IC6  gwt_ex10_simple.ic  ic
  SSM6  gwt_ex10_simple.ssm  ssm
  ADV6  gwt_ex10_simple.adv  adv
  DSP6  gwt_ex10_simple.dsp  dsp
  MST6  gwt_ex10_simple.mst  mst
  OC6  gwt_ex10_simple.oc  oc
END packages

