# File generated by Flopy version 3.9.5 on 03/05/2026 at 16:37:26.
BEGIN options
END options

BEGIN packages
  DIS6  gwt_ex10_simple.dis  dis
  IC6  gwt_ex10_simple.ic  ic
  SSM6  gwt_ex10_simple.ssm  ssm
  ADV6  gwt_ex10_simple.adv  adv
  DSP6  gwt_ex10_simple.dsp  dsp
  MST6  gwt_ex10_simple.mst  mst
  OC6  gwt_ex10_simple.oc  oc
END packages

