# File generated by Flopy version 3.9.5 on 03/05/2026 at 16:37:26.
BEGIN options
  XT3D_OFF
END options

BEGIN griddata
  alh
    CONSTANT       2.00000000
  ath1
    CONSTANT       0.40000000
  atv
    CONSTANT       0.20000000
END griddata

