# File generated by Flopy version 3.10.0 on 03/16/2026 at 14:55:54.
BEGIN options
END options

BEGIN griddata
  porosity
    CONSTANT       0.30000000
END griddata

