# File generated by Flopy version 3.9.5 on 03/05/2026 at 16:37:26.
BEGIN options
  PRINT_FLOWS
  SAVE_FLOWS
END options

BEGIN sources
  CHD  aux  concentration
END sources

