# File generated by Flopy version 3.10.0 on 03/16/2026 at 14:55:54.
BEGIN options
END options

BEGIN timing
  TDIS6  ex10_simple.tdis
END timing

BEGIN models
  gwf6  gwf_ex10_simple.nam  gwf_ex10_simple
  gwt6  gwt_ex10_simple.nam  gwt_ex10_simple
END models

BEGIN exchanges
  GWF6-GWT6  ex10_simple.gwfgwt  gwf_ex10_simple  gwt_ex10_simple
END exchanges

BEGIN solutiongroup  1
  ims6  gwf_ex10_simple.ims  gwf_ex10_simple
  ims6  gwt_ex10_simple.ims  gwt_ex10_simple
END solutiongroup  1

