# File generated by Flopy version 3.9.5 on 01/10/2026 at 20:55:51.
BEGIN options
  SAVE_FLOWS
END options

BEGIN packages
  DIS6  gwf_cat_ex_1d.dis  dis
  NPF6  gwf_cat_ex_1d.npf  npf
  IC6  gwf_cat_ex_1d.ic  ic
  WEL6  gwf_cat_ex_1d.wel  wel
  CHD6  gwf_cat_ex_1d.chd  chd
  OC6  gwf_cat_ex_1d.oc  oc
END packages

