# File generated by Flopy version 3.9.5 on 01/10/2026 at 20:55:51.
BEGIN options
  LENGTH_UNITS  meters
END options

BEGIN dimensions
  NLAY  1
  NROW  1
  NCOL  40
END dimensions

BEGIN griddata
  delr
    CONSTANT       0.00200000
  delc
    CONSTANT       1.00000000
  top
    CONSTANT       1.00000000
  botm
    CONSTANT       0.00000000
END griddata

