# File generated by Flopy version 3.9.5 on 01/10/2026 at 20:55:51.
BEGIN options
  PRINT_FLOWS
  SAVE_FLOWS
END options

BEGIN sources
  wel  aux  concentration
END sources

