# File generated by Flopy version 3.9.5 on 01/10/2026 at 20:55:51.
BEGIN options
END options

BEGIN griddata
  porosity
    CONSTANT       1.00000000
END griddata

