# File generated by Flopy version 3.9.5 on 01/10/2026 at 20:55:51.
BEGIN options
END options

BEGIN timing
  TDIS6  cat_ex_1d.tdis
END timing

BEGIN models
  gwf6  gwf_cat_ex_1d.nam  gwf_cat_ex_1d
  gwt6  gwt_cat_ex_1d.nam  gwt_cat_ex_1d
END models

BEGIN exchanges
  GWF6-GWT6  cat_ex_1d.gwfgwt  gwf_cat_ex_1d  gwt_cat_ex_1d
END exchanges

BEGIN solutiongroup  1
  ims6  gwf_cat_ex_1d.ims  gwf_cat_ex_1d
  ims6  gwt_cat_ex_1d.ims  gwt_cat_ex_1d
END solutiongroup  1

