# File generated by Flopy version 3.10.0 on 03/17/2026 at 14:15:55.
BEGIN options
  TIME_UNITS  days
END options

BEGIN dimensions
  NPER  1
END dimensions

BEGIN perioddata
     500.00000000  100       1.00000000
END perioddata

