# File generated by Flopy version 3.10.0 on 03/17/2026 at 14:15:55.
BEGIN options
  BUDGET  FILEOUT  gwf_ex10.cbb
  HEAD  FILEOUT  gwf_ex10.hds
  HEAD  PRINT_FORMAT  COLUMNS  10  WIDTH  15  DIGITS  6  GENERAL
END options

BEGIN period  1
  SAVE  HEAD  ALL
  SAVE  BUDGET  ALL
  PRINT  HEAD  LAST
  PRINT  BUDGET  LAST
END period  1

