# File generated by Flopy version 3.10.0 on 03/17/2026 at 14:15:55.
BEGIN options
  auxiliary  concentration  rtmf6_sol_number
END options

BEGIN dimensions
  MAXBOUND  80
END dimensions

BEGIN period  1
  1 1 1 5 0 0
  1 1 80 3 0 0
  1 2 1 5 0 0
  1 2 80 3 0 0
  1 3 1 5 0 0
  1 3 80 3 0 0
  1 4 1 5 0 0
  1 4 80 3 0 0
  1 5 1 5 0 0
  1 5 80 3 0 0
  1 6 1 5 0 0
  1 6 80 3 0 0
  1 7 1 5 0 0
  1 7 80 3 0 0
  1 8 1 5 0 0
  1 8 80 3 0 0
  1 9 1 5 0 0
  1 9 80 3 0 0
  1 10 1 5 0 0
  1 10 80 3 0 0
  1 11 1 5 0 0
  1 11 80 3 0 0
  1 12 1 5 0 0
  1 12 80 3 0 0
  1 13 1 5 0 0
  1 13 80 3 0 0
  1 14 1 5 0 0
  1 14 80 3 0 0
  1 15 1 5 0 0
  1 15 80 3 0 0
  1 16 1 5 0 0
  1 16 80 3 0 0
  1 17 1 5 0 0
  1 17 80 3 0 0
  1 18 1 5 0 0
  1 18 80 3 0 0
  1 19 1 5 0 0
  1 19 80 3 0 0
  1 20 1 5 0 0
  1 20 80 3 0 0
  1 21 1 5 0 0
  1 21 80 3 0 0
  1 22 1 5 0 0
  1 22 80 3 0 0
  1 23 1 5 0 0
  1 23 80 3 0 0
  1 24 1 5 0 0
  1 24 80 3 0 0
  1 25 1 5 0 0
  1 25 80 3 0 0
  1 26 1 5 0 0
  1 26 80 3 0 0
  1 27 1 5 0 0
  1 27 80 3 0 0
  1 28 1 5 0 0
  1 28 80 3 0 0
  1 29 1 5 0 0
  1 29 80 3 0 0
  1 30 1 5 0 0
  1 30 80 3 0 0
  1 31 1 5 0 0
  1 31 80 3 0 0
  1 32 1 5 0 0
  1 32 80 3 0 0
  1 33 1 5 0 0
  1 33 80 3 0 0
  1 34 1 5 0 0
  1 34 80 3 0 0
  1 35 1 5 0 0
  1 35 80 3 0 0
  1 36 1 5 0 0
  1 36 80 3 0 0
  1 37 1 5 0 0
  1 37 80 3 0 0
  1 38 1 5 0 0
  1 38 80 3 0 0
  1 39 1 5 0 0
  1 39 80 3 0 0
  1 40 1 5 0 0
  1 40 80 3 0 0
END period  1

