# File generated by Flopy version 3.10.0 on 03/17/2026 at 14:15:55.
BEGIN options
  SAVE_FLOWS
END options

BEGIN packages
  DIS6  gwf_ex10.dis  dis
  NPF6  gwf_ex10.npf  npf
  IC6  gwf_ex10.ic  ic
  CHD6  gwf_ex10.chd  chd
  OC6  gwf_ex10.oc  oc
END packages

