# File generated by Flopy version 3.10.0 on 03/17/2026 at 14:15:55.
BEGIN options
  LENGTH_UNITS  meters
  NOGRB
END options

BEGIN dimensions
  NLAY  1
  NROW  40
  NCOL  80
END dimensions

BEGIN griddata
  delr
    CONSTANT       2.50000000
  delc
    CONSTANT       1.25000000
  top
    CONSTANT      10.00000000
  botm
    CONSTANT       0.00000000
END griddata

