# File generated by Flopy version 3.10.0 on 03/17/2026 at 14:15:55.
BEGIN options
END options

BEGIN griddata
  porosity
    CONSTANT       0.30000000
END griddata

