# File generated by Flopy version 3.10.0 on 03/17/2026 at 14:15:55.
BEGIN options
END options

BEGIN packages
  DIS6  gwt_ex10.dis  dis
  IC6  gwt_ex10.ic  ic
  SSM6  gwt_ex10.ssm  ssm
  ADV6  gwt_ex10.adv  adv
  DSP6  gwt_ex10.dsp  dsp
  MST6  gwt_ex10.mst  mst
  OC6  gwt_ex10.oc  oc
END packages

