# File generated by Flopy version 3.10.0 on 03/17/2026 at 14:15:55.
BEGIN options
  PRINT_FLOWS
  SAVE_FLOWS
END options

BEGIN sources
  CHD  aux  concentration
END sources

