# File generated by Flopy version 3.10.0 on 03/17/2026 at 14:15:55.
BEGIN options
END options

BEGIN timing
  TDIS6  ex10.tdis
END timing

BEGIN models
  gwf6  gwf_ex10.nam  gwf_ex10
  gwt6  gwt_ex10.nam  gwt_ex10
END models

BEGIN exchanges
  GWF6-GWT6  ex10.gwfgwt  gwf_ex10  gwt_ex10
END exchanges

BEGIN solutiongroup  1
  ims6  gwf_ex10.ims  gwf_ex10
  ims6  gwt_ex10.ims  gwt_ex10
END solutiongroup  1

