# File generated by Flopy version 3.10.0 on 03/26/2026 at 10:34:10.
BEGIN options
  TIME_UNITS  days
END options

BEGIN dimensions
  NPER  2
END dimensions

BEGIN perioddata
     375.00000000  7500       1.00000000
     125.00000000  2500       1.00000000
END perioddata

