# File generated by Flopy version 3.10.0 on 03/26/2026 at 10:34:10.
BEGIN options
  auxiliary  concentration  rtmf6_sol_number  SALINITY  DENSITY
END options

BEGIN dimensions
  MAXBOUND  100
END dimensions

BEGIN period  1
  1 1 80 51 1.00000000E+06 0 0 0 1.00000000E+03
  2 1 80 51 1.00000000E+06 0 0 0 1.00000000E+03
  3 1 80 51 1.00000000E+06 0 0 0 1.00000000E+03
  4 1 80 51 1.00000000E+06 0 0 0 1.00000000E+03
  5 1 80 51 1.00000000E+06 0 0 0 1.00000000E+03
  6 1 80 51 1.00000000E+06 0 0 0 1.00000000E+03
  7 1 80 51 1.00000000E+06 0 0 0 1.00000000E+03
  8 1 80 51 1.00000000E+06 0 0 0 1.00000000E+03
  9 1 80 51 1.00000000E+06 0 0 0 1.00000000E+03
  10 1 80 51 1.00000000E+06 0 0 0 1.00000000E+03
  11 1 80 51 1.00000000E+06 0 0 0 1.00000000E+03
  12 1 80 51 1.00000000E+06 0 0 0 1.00000000E+03
  13 1 80 51 1.00000000E+06 0 0 0 1.00000000E+03
  14 1 80 51 1.00000000E+06 0 0 0 1.00000000E+03
  15 1 80 51 1.00000000E+06 0 0 0 1.00000000E+03
  16 1 80 51 1.00000000E+06 0 0 0 1.00000000E+03
  17 1 80 51 1.00000000E+06 0 0 0 1.00000000E+03
  18 1 80 51 1.00000000E+06 0 0 0 1.00000000E+03
  19 1 80 51 1.00000000E+06 0 0 0 1.00000000E+03
  20 1 80 51 1.00000000E+06 0 0 0 1.00000000E+03
  21 1 80 51 1.00000000E+06 0 0 0 1.00000000E+03
  22 1 80 51 1.00000000E+06 0 0 0 1.00000000E+03
  23 1 80 51 1.00000000E+06 0 0 0 1.00000000E+03
  24 1 80 51 1.00000000E+06 0 0 0 1.00000000E+03
  25 1 80 51 1.00000000E+06 0 0 0 1.00000000E+03
  26 1 80 51 1.00000000E+06 0 0 0 1.00000000E+03
  27 1 80 51 1.00000000E+06 0 0 0 1.00000000E+03
  28 1 80 51 1.00000000E+06 0 0 0 1.00000000E+03
  29 1 80 51 1.00000000E+06 0 0 0 1.00000000E+03
  30 1 80 51 1.00000000E+06 0 0 0 1.00000000E+03
  31 1 80 51 1.00000000E+06 0 0 0 1.00000000E+03
  32 1 80 51 1.00000000E+06 0 0 0 1.00000000E+03
  33 1 80 51 1.00000000E+06 0 0 0 1.00000000E+03
  34 1 80 51 1.00000000E+06 0 0 0 1.00000000E+03
  35 1 80 51 1.00000000E+06 0 0 0 1.00000000E+03
  36 1 80 51 1.00000000E+06 0 0 0 1.00000000E+03
  37 1 80 51 1.00000000E+06 0 0 0 1.00000000E+03
  38 1 80 51 1.00000000E+06 0 0 0 1.00000000E+03
  39 1 80 51 1.00000000E+06 0 0 0 1.00000000E+03
  40 1 80 51 1.00000000E+06 0 0 0 1.00000000E+03
  41 1 80 51 1.00000000E+06 0 0 0 1.00000000E+03
  42 1 80 51 1.00000000E+06 0 0 0 1.00000000E+03
  43 1 80 51 1.00000000E+06 0 0 0 1.00000000E+03
  44 1 80 51 1.00000000E+06 0 0 0 1.00000000E+03
  45 1 80 51 1.00000000E+06 0 0 0 1.00000000E+03
  46 1 80 51 1.00000000E+06 0 0 0 1.00000000E+03
  47 1 80 51 1.00000000E+06 0 0 0 1.00000000E+03
  48 1 80 51 1.00000000E+06 0 0 0 1.00000000E+03
  49 1 80 51 1.00000000E+06 0 0 0 1.00000000E+03
  50 1 80 51 1.00000000E+06 0 0 0 1.00000000E+03
  51 1 80 51 1.00000000E+06 0 0 0 1.00000000E+03
  52 1 80 51 1.00000000E+06 0 0 0 1.00000000E+03
  53 1 80 51 1.00000000E+06 0 0 0 1.00000000E+03
  54 1 80 51 1.00000000E+06 0 0 0 1.00000000E+03
  55 1 80 51 1.00000000E+06 0 0 0 1.00000000E+03
  56 1 80 51 1.00000000E+06 0 0 0 1.00000000E+03
  57 1 80 51 1.00000000E+06 0 0 0 1.00000000E+03
  58 1 80 51 1.00000000E+06 0 0 0 1.00000000E+03
  59 1 80 51 1.00000000E+06 0 0 0 1.00000000E+03
  60 1 80 51 1.00000000E+06 0 0 0 1.00000000E+03
  61 1 80 51 1.00000000E+06 0 0 0 1.00000000E+03
  62 1 80 51 1.00000000E+06 0 0 0 1.00000000E+03
  63 1 80 51 1.00000000E+06 0 0 0 1.00000000E+03
  64 1 80 51 1.00000000E+06 0 0 0 1.00000000E+03
  65 1 80 51 1.00000000E+06 0 0 0 1.00000000E+03
  66 1 80 51 1.00000000E+06 0 0 0 1.00000000E+03
  67 1 80 51 1.00000000E+06 0 0 0 1.00000000E+03
  68 1 80 51 1.00000000E+06 0 0 0 1.00000000E+03
  69 1 80 51 1.00000000E+06 0 0 0 1.00000000E+03
  70 1 80 51 1.00000000E+06 0 0 0 1.00000000E+03
  71 1 80 51 1.00000000E+06 0 0 0 1.00000000E+03
  72 1 80 51 1.00000000E+06 0 0 0 1.00000000E+03
  73 1 80 51 1.00000000E+06 0 0 0 1.00000000E+03
  74 1 80 51 1.00000000E+06 0 0 0 1.00000000E+03
  75 1 80 51 1.00000000E+06 0 0 0 1.00000000E+03
  76 1 80 51 1.00000000E+06 0 0 0 1.00000000E+03
  77 1 80 51 1.00000000E+06 0 0 0 1.00000000E+03
  78 1 80 51 1.00000000E+06 0 0 0 1.00000000E+03
  79 1 80 51 1.00000000E+06 0 0 0 1.00000000E+03
  80 1 80 51 1.00000000E+06 0 0 0 1.00000000E+03
  81 1 80 51 1.00000000E+06 0 0 0 1.00000000E+03
  82 1 80 51 1.00000000E+06 0 0 0 1.00000000E+03
  83 1 80 51 1.00000000E+06 0 0 0 1.00000000E+03
  84 1 80 51 1.00000000E+06 0 0 0 1.00000000E+03
  85 1 80 51 1.00000000E+06 0 0 0 1.00000000E+03
  86 1 80 51 1.00000000E+06 0 0 0 1.00000000E+03
  87 1 80 51 1.00000000E+06 0 0 0 1.00000000E+03
  88 1 80 51 1.00000000E+06 0 0 0 1.00000000E+03
  89 1 80 51 1.00000000E+06 0 0 0 1.00000000E+03
  90 1 80 51 1.00000000E+06 0 0 0 1.00000000E+03
  91 1 80 51 1.00000000E+06 0 0 0 1.00000000E+03
  92 1 80 51 1.00000000E+06 0 0 0 1.00000000E+03
  93 1 80 51 1.00000000E+06 0 0 0 1.00000000E+03
  94 1 80 51 1.00000000E+06 0 0 0 1.00000000E+03
  95 1 80 51 1.00000000E+06 0 0 0 1.00000000E+03
  96 1 80 51 1.00000000E+06 0 0 0 1.00000000E+03
  97 1 80 51 1.00000000E+06 0 0 0 1.00000000E+03
  98 1 80 51 1.00000000E+06 0 0 0 1.00000000E+03
  99 1 80 51 1.00000000E+06 0 0 0 1.00000000E+03
  100 1 80 51 1.00000000E+06 0 0 0 1.00000000E+03
END period  1

