# File generated by Flopy version 3.10.0 on 03/26/2026 at 10:34:10.
BEGIN options
  auxiliary  concentration  rtmf6_sol_number  SALINITY
  SAVE_FLOWS
END options

BEGIN dimensions
  MAXBOUND  100
END dimensions

BEGIN period  1
  1 1 1 5.00000000E-02 0 0.00000000E+00 0.00000000E+00
  2 1 1 5.00000000E-02 0 0.00000000E+00 0.00000000E+00
  3 1 1 5.00000000E-02 0 0.00000000E+00 0.00000000E+00
  4 1 1 5.00000000E-02 0 0.00000000E+00 0.00000000E+00
  5 1 1 5.00000000E-02 0 0.00000000E+00 0.00000000E+00
  6 1 1 5.00000000E-02 0 0.00000000E+00 0.00000000E+00
  7 1 1 5.00000000E-02 0 0.00000000E+00 0.00000000E+00
  8 1 1 5.00000000E-02 0 0.00000000E+00 0.00000000E+00
  9 1 1 5.00000000E-02 0 0.00000000E+00 0.00000000E+00
  10 1 1 5.00000000E-02 0 0.00000000E+00 0.00000000E+00
  11 1 1 5.00000000E-02 0 0.00000000E+00 0.00000000E+00
  12 1 1 5.00000000E-02 0 0.00000000E+00 0.00000000E+00
  13 1 1 5.00000000E-02 0 0.00000000E+00 0.00000000E+00
  14 1 1 5.00000000E-02 0 0.00000000E+00 0.00000000E+00
  15 1 1 5.00000000E-02 0 1.00000000E+00 3.50000000E+01
  16 1 1 5.00000000E-02 0 1.00000000E+00 3.50000000E+01
  17 1 1 5.00000000E-02 0 1.00000000E+00 3.50000000E+01
  18 1 1 5.00000000E-02 0 1.00000000E+00 3.50000000E+01
  19 1 1 5.00000000E-02 0 1.00000000E+00 3.50000000E+01
  20 1 1 5.00000000E-02 0 1.00000000E+00 3.50000000E+01
  21 1 1 5.00000000E-02 0 1.00000000E+00 3.50000000E+01
  22 1 1 5.00000000E-02 0 1.00000000E+00 3.50000000E+01
  23 1 1 5.00000000E-02 0 1.00000000E+00 3.50000000E+01
  24 1 1 5.00000000E-02 0 1.00000000E+00 3.50000000E+01
  25 1 1 5.00000000E-02 0 1.00000000E+00 3.50000000E+01
  26 1 1 5.00000000E-02 0 1.00000000E+00 3.50000000E+01
  27 1 1 5.00000000E-02 0 1.00000000E+00 3.50000000E+01
  28 1 1 5.00000000E-02 0 1.00000000E+00 3.50000000E+01
  29 1 1 5.00000000E-02 0 1.00000000E+00 3.50000000E+01
  30 1 1 5.00000000E-02 0 1.00000000E+00 3.50000000E+01
  31 1 1 5.00000000E-02 0 0.00000000E+00 0.00000000E+00
  32 1 1 5.00000000E-02 0 0.00000000E+00 0.00000000E+00
  33 1 1 5.00000000E-02 0 0.00000000E+00 0.00000000E+00
  34 1 1 5.00000000E-02 0 0.00000000E+00 0.00000000E+00
  35 1 1 5.00000000E-02 0 0.00000000E+00 0.00000000E+00
  36 1 1 5.00000000E-02 0 0.00000000E+00 0.00000000E+00
  37 1 1 5.00000000E-02 0 0.00000000E+00 0.00000000E+00
  38 1 1 5.00000000E-02 0 0.00000000E+00 0.00000000E+00
  39 1 1 5.00000000E-02 0 0.00000000E+00 0.00000000E+00
  40 1 1 5.00000000E-02 0 0.00000000E+00 0.00000000E+00
  41 1 1 5.00000000E-02 0 0.00000000E+00 0.00000000E+00
  42 1 1 5.00000000E-02 0 0.00000000E+00 0.00000000E+00
  43 1 1 5.00000000E-02 0 0.00000000E+00 0.00000000E+00
  44 1 1 5.00000000E-02 0 0.00000000E+00 0.00000000E+00
  45 1 1 5.00000000E-02 0 0.00000000E+00 0.00000000E+00
  46 1 1 5.00000000E-02 0 0.00000000E+00 0.00000000E+00
  47 1 1 5.00000000E-02 0 0.00000000E+00 0.00000000E+00
  48 1 1 5.00000000E-02 0 0.00000000E+00 0.00000000E+00
  49 1 1 5.00000000E-02 0 0.00000000E+00 0.00000000E+00
  50 1 1 5.00000000E-02 0 0.00000000E+00 0.00000000E+00
  51 1 1 5.00000000E-02 0 0.00000000E+00 0.00000000E+00
  52 1 1 5.00000000E-02 0 0.00000000E+00 0.00000000E+00
  53 1 1 5.00000000E-02 0 0.00000000E+00 0.00000000E+00
  54 1 1 5.00000000E-02 0 0.00000000E+00 0.00000000E+00
  55 1 1 5.00000000E-02 0 0.00000000E+00 0.00000000E+00
  56 1 1 5.00000000E-02 0 0.00000000E+00 0.00000000E+00
  57 1 1 5.00000000E-02 0 0.00000000E+00 0.00000000E+00
  58 1 1 5.00000000E-02 0 0.00000000E+00 0.00000000E+00
  59 1 1 5.00000000E-02 0 0.00000000E+00 0.00000000E+00
  60 1 1 5.00000000E-02 0 0.00000000E+00 0.00000000E+00
  61 1 1 5.00000000E-02 0 0.00000000E+00 0.00000000E+00
  62 1 1 5.00000000E-02 0 0.00000000E+00 0.00000000E+00
  63 1 1 5.00000000E-02 0 0.00000000E+00 0.00000000E+00
  64 1 1 5.00000000E-02 0 0.00000000E+00 0.00000000E+00
  65 1 1 5.00000000E-02 0 0.00000000E+00 0.00000000E+00
  66 1 1 5.00000000E-02 0 0.00000000E+00 0.00000000E+00
  67 1 1 5.00000000E-02 0 0.00000000E+00 0.00000000E+00
  68 1 1 5.00000000E-02 0 0.00000000E+00 0.00000000E+00
  69 1 1 5.00000000E-02 0 0.00000000E+00 0.00000000E+00
  70 1 1 5.00000000E-02 0 0.00000000E+00 0.00000000E+00
  71 1 1 5.00000000E-02 0 0.00000000E+00 0.00000000E+00
  72 1 1 5.00000000E-02 0 0.00000000E+00 0.00000000E+00
  73 1 1 5.00000000E-02 0 0.00000000E+00 0.00000000E+00
  74 1 1 5.00000000E-02 0 0.00000000E+00 0.00000000E+00
  75 1 1 5.00000000E-02 0 0.00000000E+00 0.00000000E+00
  76 1 1 5.00000000E-02 0 0.00000000E+00 0.00000000E+00
  77 1 1 5.00000000E-02 0 0.00000000E+00 0.00000000E+00
  78 1 1 5.00000000E-02 0 0.00000000E+00 0.00000000E+00
  79 1 1 5.00000000E-02 0 0.00000000E+00 0.00000000E+00
  80 1 1 5.00000000E-02 0 0.00000000E+00 0.00000000E+00
  81 1 1 5.00000000E-02 0 0.00000000E+00 0.00000000E+00
  82 1 1 5.00000000E-02 0 0.00000000E+00 0.00000000E+00
  83 1 1 5.00000000E-02 0 0.00000000E+00 0.00000000E+00
  84 1 1 5.00000000E-02 0 0.00000000E+00 0.00000000E+00
  85 1 1 5.00000000E-02 0 0.00000000E+00 0.00000000E+00
  86 1 1 5.00000000E-02 0 0.00000000E+00 0.00000000E+00
  87 1 1 5.00000000E-02 0 0.00000000E+00 0.00000000E+00
  88 1 1 5.00000000E-02 0 0.00000000E+00 0.00000000E+00
  89 1 1 5.00000000E-02 0 0.00000000E+00 0.00000000E+00
  90 1 1 5.00000000E-02 0 0.00000000E+00 0.00000000E+00
  91 1 1 5.00000000E-02 0 0.00000000E+00 0.00000000E+00
  92 1 1 5.00000000E-02 0 0.00000000E+00 0.00000000E+00
  93 1 1 5.00000000E-02 0 0.00000000E+00 0.00000000E+00
  94 1 1 5.00000000E-02 0 0.00000000E+00 0.00000000E+00
  95 1 1 5.00000000E-02 0 0.00000000E+00 0.00000000E+00
  96 1 1 5.00000000E-02 0 0.00000000E+00 0.00000000E+00
  97 1 1 5.00000000E-02 0 0.00000000E+00 0.00000000E+00
  98 1 1 5.00000000E-02 0 0.00000000E+00 0.00000000E+00
  99 1 1 5.00000000E-02 0 0.00000000E+00 0.00000000E+00
  100 1 1 5.00000000E-02 0 0.00000000E+00 0.00000000E+00
END period  1

BEGIN period  2
  1 1 1 5.00000000E-02 0 0 0
  2 1 1 5.00000000E-02 0 0 0
  3 1 1 5.00000000E-02 0 0 0
  4 1 1 5.00000000E-02 0 0 0
  5 1 1 5.00000000E-02 0 0 0
  6 1 1 5.00000000E-02 0 0 0
  7 1 1 5.00000000E-02 0 0 0
  8 1 1 5.00000000E-02 0 0 0
  9 1 1 5.00000000E-02 0 0 0
  10 1 1 5.00000000E-02 0 0 0
  11 1 1 5.00000000E-02 0 0 0
  12 1 1 5.00000000E-02 0 0 0
  13 1 1 5.00000000E-02 0 0 0
  14 1 1 5.00000000E-02 0 0 0
  15 1 1 5.00000000E-02 0 0 0
  16 1 1 5.00000000E-02 0 0 0
  17 1 1 5.00000000E-02 0 0 0
  18 1 1 5.00000000E-02 0 0 0
  19 1 1 5.00000000E-02 0 0 0
  20 1 1 5.00000000E-02 0 0 0
  21 1 1 5.00000000E-02 0 0 0
  22 1 1 5.00000000E-02 0 0 0
  23 1 1 5.00000000E-02 0 0 0
  24 1 1 5.00000000E-02 0 0 0
  25 1 1 5.00000000E-02 0 0 0
  26 1 1 5.00000000E-02 0 0 0
  27 1 1 5.00000000E-02 0 0 0
  28 1 1 5.00000000E-02 0 0 0
  29 1 1 5.00000000E-02 0 0 0
  30 1 1 5.00000000E-02 0 0 0
  31 1 1 5.00000000E-02 0 0 0
  32 1 1 5.00000000E-02 0 0 0
  33 1 1 5.00000000E-02 0 0 0
  34 1 1 5.00000000E-02 0 0 0
  35 1 1 5.00000000E-02 0 0 0
  36 1 1 5.00000000E-02 0 0 0
  37 1 1 5.00000000E-02 0 0 0
  38 1 1 5.00000000E-02 0 0 0
  39 1 1 5.00000000E-02 0 0 0
  40 1 1 5.00000000E-02 0 0 0
  41 1 1 5.00000000E-02 0 0 0
  42 1 1 5.00000000E-02 0 0 0
  43 1 1 5.00000000E-02 0 0 0
  44 1 1 5.00000000E-02 0 0 0
  45 1 1 5.00000000E-02 0 0 0
  46 1 1 5.00000000E-02 0 0 0
  47 1 1 5.00000000E-02 0 0 0
  48 1 1 5.00000000E-02 0 0 0
  49 1 1 5.00000000E-02 0 0 0
  50 1 1 5.00000000E-02 0 0 0
  51 1 1 5.00000000E-02 0 0 0
  52 1 1 5.00000000E-02 0 0 0
  53 1 1 5.00000000E-02 0 0 0
  54 1 1 5.00000000E-02 0 0 0
  55 1 1 5.00000000E-02 0 0 0
  56 1 1 5.00000000E-02 0 0 0
  57 1 1 5.00000000E-02 0 0 0
  58 1 1 5.00000000E-02 0 0 0
  59 1 1 5.00000000E-02 0 0 0
  60 1 1 5.00000000E-02 0 0 0
  61 1 1 5.00000000E-02 0 0 0
  62 1 1 5.00000000E-02 0 0 0
  63 1 1 5.00000000E-02 0 0 0
  64 1 1 5.00000000E-02 0 0 0
  65 1 1 5.00000000E-02 0 0 0
  66 1 1 5.00000000E-02 0 0 0
  67 1 1 5.00000000E-02 0 0 0
  68 1 1 5.00000000E-02 0 0 0
  69 1 1 5.00000000E-02 0 0 0
  70 1 1 5.00000000E-02 0 0 0
  71 1 1 5.00000000E-02 0 0 0
  72 1 1 5.00000000E-02 0 0 0
  73 1 1 5.00000000E-02 0 0 0
  74 1 1 5.00000000E-02 0 0 0
  75 1 1 5.00000000E-02 0 0 0
  76 1 1 5.00000000E-02 0 0 0
  77 1 1 5.00000000E-02 0 0 0
  78 1 1 5.00000000E-02 0 0 0
  79 1 1 5.00000000E-02 0 0 0
  80 1 1 5.00000000E-02 0 0 0
  81 1 1 5.00000000E-02 0 0 0
  82 1 1 5.00000000E-02 0 0 0
  83 1 1 5.00000000E-02 0 0 0
  84 1 1 5.00000000E-02 0 0 0
  85 1 1 5.00000000E-02 0 0 0
  86 1 1 5.00000000E-02 0 0 0
  87 1 1 5.00000000E-02 0 0 0
  88 1 1 5.00000000E-02 0 0 0
  89 1 1 5.00000000E-02 0 0 0
  90 1 1 5.00000000E-02 0 0 0
  91 1 1 5.00000000E-02 0 0 0
  92 1 1 5.00000000E-02 0 0 0
  93 1 1 5.00000000E-02 0 0 0
  94 1 1 5.00000000E-02 0 0 0
  95 1 1 5.00000000E-02 0 0 0
  96 1 1 5.00000000E-02 0 0 0
  97 1 1 5.00000000E-02 0 0 0
  98 1 1 5.00000000E-02 0 0 0
  99 1 1 5.00000000E-02 0 0 0
  100 1 1 5.00000000E-02 0 0 0
END period  2

