# File generated by Flopy version 3.10.0 on 03/26/2026 at 10:34:10.
BEGIN options
  BUDGET  FILEOUT  gwf_ex10_dens.cbb
  HEAD  FILEOUT  gwf_ex10_dens.hds
  HEAD  PRINT_FORMAT  COLUMNS  10  WIDTH  15  DIGITS  6  GENERAL
END options

BEGIN period  1
  SAVE  HEAD  ALL
  SAVE  BUDGET  LAST
  PRINT  HEAD  LAST
  PRINT  BUDGET  LAST
END period  1

