# File generated by Flopy version 3.10.0 on 03/26/2026 at 10:34:10.
BEGIN options
  DENSEREF    1000.00000000
END options

BEGIN dimensions
  NRHOSPECIES  1
END dimensions

BEGIN packagedata
  1       0.70000000       0.00000000  gws_ex10_dens  SALINITY
END packagedata

