# File generated by Flopy version 3.10.0 on 03/26/2026 at 10:34:10.
BEGIN options
  SAVE_FLOWS
END options

BEGIN packages
  DIS6  gwf_ex10_dens.dis  dis
  NPF6  gwf_ex10_dens.npf  npf
  IC6  gwf_ex10_dens.ic  ic
  WEL6  gwf_ex10_dens.wel  wel
  GHB6  gwf_ex10_dens.ghb  ghb
  OC6  gwf_ex10_dens.oc  oc
  BUY6  gwf_ex10_dens.buy  buy
END packages

