# File generated by Flopy version 3.10.0 on 03/26/2026 at 10:34:10.
BEGIN options
  BUDGET  FILEOUT  gws_ex10_dens.cbb
  CONCENTRATION  FILEOUT  gws_ex10_dens.ucn
  CONCENTRATION  PRINT_FORMAT  COLUMNS  10  WIDTH  15  DIGITS  10  GENERAL
END options

BEGIN period  1
  SAVE  CONCENTRATION  LAST
  SAVE  BUDGET  LAST
  PRINT  CONCENTRATION  LAST
  PRINT  BUDGET  LAST
END period  1

