# File generated by Flopy version 3.10.0 on 03/26/2026 at 10:34:10.
BEGIN options
  XT3D_OFF
END options

BEGIN griddata
  alh
    CONSTANT       0.10000000
  ath1
    CONSTANT       0.00100000
  atv
    CONSTANT       0.00100000
END griddata

