# File generated by Flopy version 3.10.0 on 03/26/2026 at 10:34:10.
BEGIN options
END options

BEGIN griddata
  porosity
    CONSTANT       0.30000000
END griddata

