# File generated by Flopy version 3.10.0 on 03/26/2026 at 10:34:10.
BEGIN options
END options

BEGIN packages
  DIS6  gwt_ex10_dens.dis  dis
  IC6  gwt_ex10_dens.ic  ic
  SSM6  gwt_ex10_dens.ssm  ssm
  ADV6  gwt_ex10_dens.adv  adv
  DSP6  gwt_ex10_dens.dsp  dsp
  MST6  gwt_ex10_dens.mst  mst
  OC6  gwt_ex10_dens.oc  oc
END packages

