# File generated by Flopy version 3.10.0 on 03/26/2026 at 10:34:10.
BEGIN options
  PRINT_OPTION  summary
END options

BEGIN nonlinear
  OUTER_DVCLOSE  1.00000000E-06
  OUTER_MAXIMUM  600
  UNDER_RELAXATION  none
END nonlinear

BEGIN linear
  INNER_MAXIMUM  900
  INNER_DVCLOSE  1.00000000E-06
  inner_rclose  1.00000000E-06
  LINEAR_ACCELERATION  bicgstab
  RELAXATION_FACTOR       0.99000000
  SCALING_METHOD  none
  REORDERING_METHOD  none
END linear

