# File generated by Flopy version 3.10.0 on 03/26/2026 at 10:34:10.
BEGIN options
  PRINT_FLOWS
  SAVE_FLOWS
END options

BEGIN sources
  wel  aux  concentration
END sources

